Version 4
SHEET 1 880 680
WIRE 144 -112 112 -112
WIRE 240 -112 208 -112
WIRE 112 -16 112 -112
WIRE 128 -16 112 -16
WIRE 240 -16 240 -112
WIRE 240 -16 208 -16
WIRE 160 144 160 80
WIRE 112 160 112 -16
WIRE 112 160 96 160
WIRE 128 160 112 160
WIRE 240 176 240 -16
WIRE 240 176 192 176
WIRE 304 176 240 176
WIRE -48 192 -48 160
WIRE 128 192 96 192
WIRE -240 208 -240 128
WIRE -112 208 -112 128
WIRE -48 208 -48 192
WIRE 16 208 -48 208
WIRE 96 224 96 192
WIRE 160 272 160 208
WIRE -240 320 -240 288
WIRE -112 320 -112 288
WIRE -112 320 -240 320
WIRE 16 320 16 288
WIRE 16 320 -112 320
WIRE -240 336 -240 320
FLAG 160 80 VP
FLAG 160 272 VN
FLAG -240 336 0
FLAG -240 128 VP
FLAG -112 128 VN
FLAG 304 176 OUT
IOPIN 304 176 Out
FLAG 96 224 0
FLAG -48 192 IN
SYMBOL OpAmps\\AD711 160 112 R0
SYMATTR InstName U1
SYMBOL voltage -240 192 R0
SYMATTR InstName V1
SYMATTR Value 15
SYMBOL voltage -112 192 R0
SYMATTR InstName V2
SYMATTR Value -15
SYMBOL voltage 16 192 R0
WINDOW 123 24 124 Left 2
WINDOW 39 0 0 Left 0
WINDOW 3 36 75 Left 2
SYMATTR Value2 AC 0.01 0
SYMATTR Value PULSE(-0.01 0.01 0 1n 1n {pulse(peri)} {peri})
SYMATTR InstName V3
SYMBOL res 48 144 R90
WINDOW 0 0 56 VBottom 2
WINDOW 3 32 56 VTop 2
SYMATTR InstName Rr
SYMATTR Value 1k
SYMBOL res 224 -32 R90
WINDOW 0 0 56 VBottom 2
WINDOW 3 32 56 VTop 2
SYMATTR InstName Rf
SYMATTR Value 10k
SYMBOL cap 96 144 R90
WINDOW 0 0 32 VBottom 2
WINDOW 3 32 32 VTop 2
SYMATTR InstName C1
SYMATTR Value {cr}
SYMBOL cap 208 -128 R90
WINDOW 0 0 32 VBottom 2
WINDOW 3 32 32 VTop 2
SYMATTR InstName C2
SYMATTR Value {cf}
TEXT -264 48 Left 2 !.ac dec 20 0.1 10meg \n*.tran {simTime(peri)}
TEXT 192 312 Left 2 !.param peri 0.1m
TEXT -72 -104 Left 2 !.param cf  1.6n
TEXT -64 0 Left 2 !.param cr 1.6u
TEXT 192 352 Left 2 !.func pulse(x) {x/2}
TEXT -328 -40 Left 2 !.func simTime(x) {x*5}
