Version 4
SHEET 1 880 680
WIRE 128 -16 112 -16
WIRE 240 -16 208 -16
WIRE 160 144 160 80
WIRE 16 160 -16 160
WIRE 112 160 112 -16
WIRE 112 160 96 160
WIRE 128 160 112 160
WIRE -16 176 -16 160
WIRE 240 176 240 -16
WIRE 240 176 192 176
WIRE 448 176 240 176
WIRE 480 176 448 176
WIRE 96 192 32 192
WIRE 128 192 96 192
WIRE -240 208 -240 128
WIRE -112 208 -112 128
WIRE 32 208 32 192
WIRE 160 272 160 208
WIRE 304 272 208 272
WIRE 448 272 448 176
WIRE 208 304 208 272
WIRE -240 320 -240 288
WIRE -112 320 -112 288
WIRE -112 320 -240 320
WIRE 32 320 32 288
WIRE 32 320 -112 320
WIRE -240 336 -240 320
WIRE 304 352 304 272
WIRE 208 384 80 384
WIRE 80 416 80 384
WIRE 112 416 80 416
WIRE 208 496 208 464
WIRE 304 496 304 416
WIRE 304 496 208 496
WIRE 208 512 208 496
FLAG 160 80 VP
FLAG 160 272 VN
FLAG -240 336 0
FLAG -240 128 VP
FLAG -112 128 VN
FLAG 480 176 OUT
IOPIN 480 176 Out
FLAG -16 176 0
FLAG 208 512 0
FLAG 96 192 IN
FLAG 112 416 FB
IOPIN 112 416 Out
SYMBOL OpAmps\\AD711 160 112 R0
SYMATTR InstName U1
SYMBOL voltage -240 192 R0
SYMATTR InstName V1
SYMATTR Value 15
SYMBOL voltage -112 192 R0
SYMATTR InstName V2
SYMATTR Value -15
SYMBOL res 224 -32 R90
WINDOW 0 0 56 VBottom 2
WINDOW 3 32 56 VTop 2
SYMATTR InstName Rf
SYMATTR Value 5k
SYMBOL res 112 144 R90
WINDOW 0 0 56 VBottom 2
WINDOW 3 32 56 VTop 2
SYMATTR InstName R1
SYMATTR Value 1k
SYMBOL res 464 256 R90
WINDOW 0 0 56 VBottom 2
WINDOW 3 32 56 VTop 2
SYMATTR InstName R2
SYMATTR Value 10k
SYMBOL cap 368 256 R90
WINDOW 0 0 32 VBottom 2
WINDOW 3 32 32 VTop 2
SYMATTR InstName C1
SYMATTR Value 16.7n
SYMBOL res 192 288 R0
SYMATTR InstName R3
SYMATTR Value {topR(k)}
SYMBOL res 192 368 R0
SYMATTR InstName R4
SYMATTR Value {botR(k)}
SYMBOL cap 288 352 R0
SYMATTR InstName C2
SYMATTR Value 16.7n
SYMBOL voltage 32 192 R0
WINDOW 123 24 124 Left 2
WINDOW 39 0 0 Left 0
SYMATTR InstName V3
SYMATTR Value ""
SYMATTR Value2 AC 0.01
TEXT -264 48 Left 2 !.ac dec 20 0.1 10meg \n*.tran 1000m
TEXT 288 56 Left 2 !.param k=0.56
TEXT 264 104 Left 2 !.func topR(k) {10000*(1-k)}
TEXT 264 136 Left 2 !.func botR(k) {10000*k}
TEXT -216 360 Left 2 !.step param k 0.2 0.8 0.1
